[General]
network = SourceSink
cpu-time-limit = 300s
sim-time-limit = 2000000s
**.source[*].sendInterval = ${1s,exponential(1s)} 
#debug-on-errors = true
